
     RDKit          3D

 47 50  0  0  0  0  0  0  0  0999 V2000
    4.6877   -2.3834   -3.0205 C   0  0  0  0  0  0  0  0  0  0  0  0
    4.2984   -1.9308   -1.6577 C   0  0  0  0  0  0  0  0  0  0  0  0
    3.1506   -1.3633   -1.3768 N   0  0  0  0  0  0  0  0  0  0  0  0
    3.1767   -1.1199    0.0185 N   0  0  0  0  0  0  0  0  0  0  0  0
    1.8920   -1.0712    0.7079 C   0  0  0  0  0  0  0  0  0  0  0  0
    1.1053    0.1051    0.2064 C   0  0  0  0  0  0  0  0  0  0  0  0
   -0.1174    0.0154   -0.3419 C   0  0  0  0  0  0  0  0  0  0  0  0
   -0.8510    1.1898   -0.8362 C   0  0  0  0  0  0  0  0  0  0  0  0
   -0.2505    1.9558   -1.8494 C   0  0  0  0  0  0  0  0  0  0  0  0
   -0.9136    3.0502   -2.3838 C   0  0  0  0  0  0  0  0  0  0  0  0
   -0.3295    3.7719   -3.3495 F   0  0  0  0  0  0  0  0  0  0  0  0
   -2.1767    3.3997   -1.9381 C   0  0  0  0  0  0  0  0  0  0  0  0
   -2.7878    2.6437   -0.9356 C   0  0  0  0  0  0  0  0  0  0  0  0
   -2.1428    1.5308   -0.3595 C   0  0  0  0  0  0  0  0  0  0  0  0
   -2.8091    0.7249    0.7498 C   0  0  1  0  0  0  0  0  0  0  0  0
   -2.1261    0.9295    2.1190 C   0  0  0  0  0  0  0  0  0  0  0  0
   -3.1910    0.6554    3.1852 C   0  0  0  0  0  0  0  0  0  0  0  0
   -4.4570    0.2782    2.4279 C   0  0  0  0  0  0  0  0  0  0  0  0
   -4.2964    0.9954    1.0890 C   0  0  2  0  0  0  0  0  0  0  0  0
   -5.2458    0.5124    0.0926 N   0  0  0  0  0  0  0  0  0  0  0  0
    4.2361   -1.7978    0.5684 C   0  0  0  0  0  0  0  0  0  0  0  0
    4.4930   -2.4380    1.6528 N   0  0  0  0  0  0  0  0  0  0  0  0
    5.5608   -3.3579    1.3255 N   0  0  0  0  0  0  0  0  0  0  0  0
    5.8791   -3.1746    0.0802 C   0  0  0  0  0  0  0  0  0  0  0  0
    5.2395   -1.9915   -0.5042 C   0  0  1  0  0  0  0  0  0  0  0  0
    5.4838   -1.7384   -3.4010 H   0  0  0  0  0  0  0  0  0  0  0  0
    3.8303   -2.3355   -3.6967 H   0  0  0  0  0  0  0  0  0  0  0  0
    5.0515   -3.4130   -2.9733 H   0  0  0  0  0  0  0  0  0  0  0  0
    1.3526   -2.0149    0.5643 H   0  0  0  0  0  0  0  0  0  0  0  0
    2.0489   -0.9400    1.7852 H   0  0  0  0  0  0  0  0  0  0  0  0
    1.5886    1.0737    0.3105 H   0  0  0  0  0  0  0  0  0  0  0  0
   -0.6163   -0.9437   -0.4507 H   0  0  0  0  0  0  0  0  0  0  0  0
    0.7313    1.6989   -2.2380 H   0  0  0  0  0  0  0  0  0  0  0  0
   -2.6856    4.2527   -2.3752 H   0  0  0  0  0  0  0  0  0  0  0  0
   -3.7865    2.9394   -0.6248 H   0  0  0  0  0  0  0  0  0  0  0  0
   -2.7318   -0.3379    0.4765 H   0  0  0  0  0  0  0  0  0  0  0  0
   -1.7479    1.9530    2.2333 H   0  0  0  0  0  0  0  0  0  0  0  0
   -1.2736    0.2547    2.2479 H   0  0  0  0  0  0  0  0  0  0  0  0
   -3.3587    1.5605    3.7804 H   0  0  0  0  0  0  0  0  0  0  0  0
   -2.8850   -0.1386    3.8738 H   0  0  0  0  0  0  0  0  0  0  0  0
   -4.4963   -0.8102    2.2917 H   0  0  0  0  0  0  0  0  0  0  0  0
   -5.3618    0.5827    2.9636 H   0  0  0  0  0  0  0  0  0  0  0  0
   -4.4717    2.0663    1.2504 H   0  0  0  0  0  0  0  0  0  0  0  0
   -6.1926    0.5595    0.4673 H   0  0  0  0  0  0  0  0  0  0  0  0
   -5.0707   -0.4710   -0.1110 H   0  0  0  0  0  0  0  0  0  0  0  0
    6.6224   -3.7708   -0.4639 H   0  0  0  0  0  0  0  0  0  0  0  0
    5.9445   -1.1568   -0.5472 H   0  0  0  0  0  0  0  0  0  0  0  0
  1  2  1  0
  2  3  2  0
  3  4  1  0
  4  5  1  0
  5  6  1  0
  6  7  2  3
  7  8  1  0
  8  9  2  0
  9 10  1  0
 10 11  1  0
 10 12  2  0
 12 13  1  0
 13 14  2  0
 14 15  1  0
 15 16  1  0
 16 17  1  0
 17 18  1  0
 18 19  1  0
 19 20  1  0
  4 21  1  0
 21 22  2  0
 22 23  1  0
 23 24  2  0
 24 25  1  0
 25  2  1  0
 14  8  1  0
 19 15  1  0
 25 21  1  0
  1 26  1  0
  1 27  1  0
  1 28  1  0
  5 29  1  0
  5 30  1  0
  6 31  1  0
  7 32  1  0
  9 33  1  0
 12 34  1  0
 13 35  1  0
 15 36  1  6
 16 37  1  0
 16 38  1  0
 17 39  1  0
 17 40  1  0
 18 41  1  0
 18 42  1  0
 19 43  1  1
 20 44  1  0
 20 45  1  0
 24 46  1  0
 25 47  1  6
M  END
$$$$
